Version 4
SHEET 1 880 680
WIRE 352 -336 208 -336
WIRE 560 -336 448 -336
WIRE 544 -288 432 -288
WIRE 96 -160 0 -160
WIRE 208 -160 208 -336
WIRE 208 -160 96 -160
WIRE 352 -160 288 -160
WIRE 368 -160 352 -160
WIRE 496 -160 448 -160
WIRE 96 -48 96 -80
WIRE 288 -48 288 -80
WIRE 0 80 0 -160
WIRE 32 80 0 80
WIRE 64 80 32 80
WIRE 480 80 480 64
WIRE 480 80 320 80
WIRE 496 80 496 -160
WIRE 496 80 480 80
WIRE 560 80 560 -336
WIRE 560 80 496 80
WIRE 624 80 560 80
WIRE 704 80 624 80
WIRE 64 160 0 160
WIRE 432 160 432 -112
WIRE 432 160 320 160
WIRE 480 160 480 80
WIRE 624 192 624 160
WIRE 672 192 624 192
WIRE 704 192 704 144
WIRE 704 192 672 192
WIRE 672 208 672 192
WIRE 32 240 32 80
WIRE 64 240 32 240
WIRE 480 240 320 240
WIRE 544 240 544 -288
WIRE 544 240 480 240
WIRE 0 288 0 160
FLAG 0 288 0
FLAG 672 208 0
FLAG 96 -48 0
FLAG 288 -48 0
SYMBOL PowerProducts\\LTC4412 192 160 R0
SYMATTR InstName U1
SYMBOL pmos 352 -112 R270
SYMATTR InstName M1
SYMATTR Value FDC638P
SYMBOL pmos 352 -288 R270
SYMATTR InstName M2
SYMATTR Value FDC638P
SYMBOL voltage 96 -176 R0
WINDOW 123 0 0 Left 2
WINDOW 39 0 0 Left 2
SYMATTR InstName V1
SYMATTR Value 3.7
SYMBOL voltage 288 -176 R0
WINDOW 123 0 0 Left 2
WINDOW 39 0 0 Left 2
SYMATTR InstName V2
SYMATTR Value PULSE(0 5 1e-3 1e-9 1e-9 2e-3 4e-3 2)
SYMBOL res 608 64 R0
SYMATTR InstName R1
SYMATTR Value 10k
SYMBOL cap 688 80 R0
SYMATTR InstName C1
SYMATTR Value 0.1µF
SYMBOL res 464 144 R0
SYMATTR InstName R2
SYMATTR Value 470k
TEXT -20 312 Left 2 !.tran 5e-3
